resultados/_temp_alt6_1p00/LineSummary.csv
line,maxCurrentA,normAmps,maxLoadingPct,meanLoadingPct,overloadHours
rbt_1607347,93.03028111081055,124.95,74.45400649124494,25.705967393792633,0
sbt_7584,93.03029124352594,163.8,56.79504959922218,19.609040824342678,0
sbt_22840,93.0302866029094,163.8,56.79504676612295,19.609040747545524,0
rbt_630758,31.59567148253799,76.65,41.22070643514415,17.132535925146154,0
rbt_637576,24.91112389719138,61.95,40.21166085099496,14.456506351682654,0
rbt_606147,25.619874012835485,76.65,33.424493167430505,12.227629208091836,0
rbt_632607,40.87392158623816,124.95,32.712222157853674,15.397080884980802,0
rbt_637918,17.92766489507654,61.95,28.93892638430434,11.125772203627301,0
rbt_1130761,25.380962704021993,90.3,28.10737840976965,13.226221223171168,0
rbt_1607350,22.12667827608099,90.3,24.503519685582496,8.723937138164194,0
rbt_605836,21.54690012114469,90.3,23.861461928177956,11.237212242318952,0
rbt_637360,14.72385639642072,61.95,23.767322673802614,11.16631431312596,0
rbt_606126,13.626419271313408,61.95,21.99583417484004,7.755135040318279,0
rbt_1633671,13.465534250851608,61.95,21.73613276973625,9.737436071566263,0
rbt_3405844,18.98962324691871,90.3,21.029483108437113,7.211049464845304,0
rbt_626476,12.727435040677468,61.95,20.544689331198494,9.665124207731447,0
rbt_606143,14.943118145887645,76.65,19.495261768933652,6.839576169781652,0
rbt_3435739,13.538270705323995,76.65,17.6624536272981,7.931035116276445,0
rbt_635862,10.800533417316444,61.95,17.434275088484977,5.950853381655161,0
rbt_605816,10.291357826504775,61.95,16.61236130186404,6.1390094118231,0
rbt_1627323,12.526498540848069,76.65,16.342463849769167,7.687890058572065,0
sbt_34378,20.565808958756207,128.1,16.054495674282755,7.876538194052554,0
sbt_34379,20.501597917162623,128.1,16.004369958753024,7.763467809229376,0
rbt_637397,9.767200772222377,61.95,15.766264361940882,7.410157254100796,0
sbt_24791,25.619895362149336,163.8,15.640961759553928,5.721904056676511,0
sbt_3174,25.61988646668711,163.8,15.640956328868807,5.721905673064281,0
rbt_609688,11.266337864430552,76.65,14.698418609824593,5.271052032308732,0
smt_19119,21.155088755711063,163.8,12.915194600556203,7.809167984711732,0
smt_17184,21.153992330780394,163.8,12.914525232466662,7.80875974817535,0
rbt_606139,9.382196096398662,76.65,12.240308018784946,4.3423663443435485,0
rbt_623004,7.331252774530201,61.95,11.834144914495885,4.5133923751906595,0
rbt_1638954,7.151519257442228,61.95,11.544018171819577,5.425911457771963,0
rbt_1607265,10.051441578112524,90.3,11.13116453833059,5.237918870008168,0
sbt_11363,18.21590663365416,163.8,11.120822120667984,4.074724065354828,0
sbt_9361,21.54690016023186,216.3,9.961581211387822,4.691263329080023,0
rbt_635543,5.8706472750275305,61.95,9.476428208276886,3.6780048125364817,0
rbt_606121,5.803970471544542,61.95,9.368798178441553,4.401948139656985,0
rbt_1605991,5.551536509144756,61.95,8.961318013147306,4.212838189818974,0
rbt_1607280,5.506613729119658,61.95,8.888803436835605,4.177311348090363,0
sbt_34393,11.080947565597178,128.1,8.650232291644947,5.686768876701343,0
rbt_606114,7.529561722609389,90.3,8.33838507487197,3.9192199695502654,0
rbt_627337,7.329959593392919,90.3,8.117341742406333,3.8167897782572346,0
rbt_1621994,7.188850576618111,90.3,7.961074835678971,3.741054476009707,0
rbt_626678,7.026011155536091,90.3,7.7807432508705325,3.6589119006617588,0
rbt_606150,4.779806421943052,61.95,7.715587444621552,3.6246227195982623,0
rbt_1607272,6.882416156302406,90.3,7.621723318164348,3.585794623192563,0
rbt_623007,4.701376918705691,61.95,7.588986148031784,3.5656349855286833,0
sbt_22748,16.282216794094712,216.3,7.527608319045173,3.541623564590702,0
sbt_7427,16.28220852741908,216.3,7.527604497188663,3.5416196269609848,0
sbt_34383,9.632278876849702,128.1,7.519343385518893,4.428877309464439,0
sbt_34392,9.632275716412726,128.1,7.5193409183549775,4.71345860170648,0
sbt_34384,9.619845286915764,128.1,7.509637226319879,3.6270645946798403,0
rbt_1630759,5.692092633200982,76.65,7.426083017874731,3.492779670552977,0
rbt_606122,4.596052445695993,61.95,7.418970856652128,3.4869918296141105,0
rbt_1229546,6.672248384616374,90.3,7.388979384957225,3.4746087329106743,0
smt_34713,21.141855140103345,286.65,7.375494554370608,4.459588580898755,0
smt_34700,21.141712936993194,286.65,7.375444945750287,4.459558833850601,0
smt_34701,21.141376096022906,286.65,7.375327436254285,4.459488393649189,0
smt_34715,21.141088061048475,286.65,7.375226953095579,4.459428184914805,0
smt_34702,21.140802783948907,286.65,7.375127432042179,4.4593685755748025,0
smt_34703,21.140412035583054,286.65,7.374991116547378,4.459286964721547,0
smt_34704,21.139942320394624,286.65,7.374827252884921,4.459188917624832,0
smt_34716,21.13964876197892,286.65,7.374724842832346,4.459127672388589,0
smt_34705,21.139353623416277,286.65,7.374621881533675,4.459066121789003,0
smt_34717,21.13900195563844,286.65,7.374499199594782,4.458992814004759,0
smt_34706,21.13864591139782,286.65,7.37437499089406,4.458918629201093,0
smt_34707,21.138226720352755,286.65,7.374228752957529,4.458831332738041,0
smt_34708,21.137836179463378,286.65,7.374092509842449,4.458750046947713,0
smt_34709,21.137332218574475,286.65,7.373916699310825,4.458645217499069,0
smt_34718,21.1370514910431,286.65,7.373818765408373,4.458586853941182,0
smt_34710,21.136776971979046,286.65,7.37372299737626,4.458529802472889,0
smt_34719,21.136489865968567,286.65,7.3736228382935876,4.458470157765132,0
smt_34711,21.13620369803487,286.65,7.373523006466029,4.458410730945717,0
smt_34720,21.13587742889268,286.65,7.373409185031461,4.458343004542027,0
smt_34712,21.135576443146515,286.65,7.373304183899012,4.458280552898109,0
smt_34721,21.135360479972544,286.65,7.373228843527838,4.458235758722321,0
smt_34714,21.13535159995232,286.65,7.373225745666255,4.458233917430047,0
rbt_1638606,4.550983085287485,61.95,7.346219669552035,3.4538302197849604,0
rbt_605905,6.511332800843903,90.3,7.210778295508198,3.3895198737391112,0
rbt_1607283,6.447417737251132,90.3,7.1399974941873,3.3585414199433496,0
smt_29422,21.154577247316368,305.0,6.935926966333235,4.193996904088166,0
smt_31417,22.601713108076375,327.6,6.899179825420139,4.195225493519483,0
smt_31416,22.60166867554303,327.6,6.899166262375772,4.195217322238611,0
smt_31411,22.601651740315877,327.6,6.8991610928925144,4.195214208269211,0
smt_31412,22.60163258015923,327.6,6.899155244248849,4.1952106846124435,0
smt_31413,22.601518961956607,327.6,6.899120562257815,4.1951897930001865,0
smt_31414,22.60143358073459,327.6,6.8990944996137324,4.195174095369858,0
smt_31415,22.601217237986617,327.6,6.8990284609238754,4.195134327001665,0
smt_4387,22.600861477334398,327.6,6.89891986487619,4.195068952906819,0
smt_4863,22.600451010878604,327.6,6.898794569865263,4.19499356064986,0
smt_4693,22.600106671074887,327.6,6.89868946003507,4.194930342627779,0
smt_4591,22.599792002665637,327.6,6.898593407407093,4.194872594715634,0
smt_17964,22.599559022889846,327.6,6.898522290259415,4.185637316312579,0
smt_4627,22.599458080271816,327.6,6.898491477494449,4.194811337065028,0
smt_4527,22.59919100026149,327.6,6.898409951239771,4.194762359152126,0
smt_6826,22.599130498833137,327.6,6.898391483160298,4.185558052959173,0
smt_23134,22.598756841256865,327.6,6.898277424071081,4.19468277517569,0
smt_7012,22.5986358727784,327.6,6.898240498406103,4.185466612857941,0
smt_18545,22.59836759491341,327.6,6.898158606505925,4.194611459059055,0
smt_22791,22.598192666876454,327.6,6.898105209669246,4.18538472418416,0
smt_10381,22.59795522544762,327.6,6.898032730600616,4.194535942668701,0
smt_18806,22.597746914331466,327.6,6.897969143568823,4.194497809280491,0
smt_24122,22.597679117876392,327.6,6.897948448680218,4.194485401067929,0
smt_7020,22.597675323829908,327.6,6.8979472905463695,4.185289192034381,0
smt_6842,22.597277273089688,327.6,6.897825785436412,4.185215728238046,0
smt_6830,22.596673454500227,327.6,6.897641469627663,4.1851043544608215,0
smt_29390,22.596329928827664,327.6,6.897536608311253,4.184839027000941,0
smt_31407,22.595947287283114,327.6,6.897419806862977,4.1849705194255655,0
smt_17776,22.595745012163626,327.6,6.8973580623210085,4.184729881115987,0
smt_31408,22.595502605929717,327.6,6.897284067744113,4.193740176953851,0
smt_10747,22.595149847186658,327.6,6.897176388030115,4.184618899577521,0
smt_18202,22.594633042615275,327.6,6.897018633276946,4.184522592820236,0
smt_17794,22.59415350295134,327.6,6.89687225364815,4.184433282558548,0
smt_29420,22.593857215988628,327.6,6.89678181196234,4.184378126661903,0
smt_22739,22.59368407062618,327.6,6.8967289592876,4.184345903380724,0
smt_17795,22.59311319518057,327.6,6.896554699383568,4.184239706663086,0
smt_29389,22.592476368581025,327.6,6.896360307869666,4.184121325450823,0
smt_19163,22.591927672783655,327.6,6.896192818310029,4.184019398144399,0
smt_17961,22.591577985429673,327.6,6.896086076138483,4.183954473558274,0
smt_29388,22.591174703533575,327.6,6.895962974216598,4.183879631536294,0
smt_17962,22.590679080018326,327.6,6.895811684987279,4.183787701217862,0
rbt_1107340,6.173540253133763,90.3,6.836700169583349,3.216877592879101,0
rbt_605822,6.172990351578364,90.3,6.8360911977612,3.2167238101939173,0
rbt_1626486,6.169209629116374,90.3,6.831904351180923,3.210314025960979,0
rbt_1607287,6.166552816363325,90.3,6.8289621443669155,3.211859558005202,0
rbt_606132,4.1230757051103195,61.95,6.655489435206327,3.127058246110867,0
rbt_623433,5.972109996688348,90.3,6.613632332988205,3.1113891405665997,0
rbt_626698,5.9301991902118525,90.3,6.5672194797473455,3.0864645407616957,0
rbt_1607252,4.997335341852209,76.65,6.519680811287944,3.065773118777377,0
smt_6447,21.206482018057866,327.6,6.473285109297272,3.9164608234604876,0
smt_6627,21.206119968613528,327.6,6.473174593593872,3.916396174049044,0
smt_24630,21.20554280798055,327.6,6.4729984151344775,3.9162931797981155,0
smt_24629,21.205186705301866,327.6,6.472889714683109,3.9162296740707085,0
smt_24628,21.20471196321429,327.6,6.4727447995159615,3.9161450591383242,0
smt_24627,21.204359518981008,327.6,6.472637215806168,3.9160822775658386,0
smt_6957,21.204029833830525,327.6,6.4725365793133465,3.9160235777138923,0
smt_6431,21.20361955706946,327.6,6.472411342206794,3.91595056595242,0
smt_24626,21.203278143573048,327.6,6.472307125632798,3.9158898404263187,0
smt_12228,21.202906952552677,327.6,6.472193819460524,3.9158238510091636,0
smt_6510,21.16136120634984,327.6,6.459511967750256,3.905886050606796,0
smt_19223,21.160859721392576,327.6,6.459358889313973,3.9057955812729652,0
smt_22843,21.16043289633338,327.6,6.459228600834364,3.9057186294932453,0
smt_6737,21.16006063067424,327.6,6.459114966628278,3.9056515507381673,0
smt_24665,21.159575559308866,327.6,6.458966898445929,3.905564196577615,0
smt_24635,21.159074470194508,327.6,6.458813940840814,3.905474018641314,0
smt_24637,21.15855601342014,327.6,6.4586556817521785,3.905380780161421,0
smt_24636,21.158049044305958,327.6,6.458500929275322,3.9052896715620733,0
smt_19174,21.157587494191187,327.6,6.458360040961901,3.9052067803351043,0
smt_6686,21.1570430430943,327.6,6.458193847098383,3.90510906806387,0
smt_19173,21.156127582373745,327.6,6.457914402433988,3.9049449354900645,0
smt_19172,21.15581826457844,327.6,6.457819983082551,3.904889524685639,0
smt_6544,21.155480759314997,327.6,6.457716959497863,3.904829091273736,0
smt_6535,21.154981927778564,327.6,6.457564691019098,3.904739822331482,0
smt_24511,21.154597344564834,327.6,6.457447296875713,3.9044924713159035,0
smt_29446,21.153979118185436,327.6,6.457258583084687,3.90437741576466,0
smt_24634,21.153891587502176,327.6,6.4572318643169035,3.9045449128958203,0
smt_32671,21.153571418055247,327.6,6.457134132495495,3.904301591706561,0
smt_24633,21.153502544058675,327.6,6.457113108687018,3.904475438414718,0
smt_6389,21.153121407011557,327.6,6.456996766487045,3.9042179457816473,0
smt_24510,21.15310758698299,327.6,6.456992547919105,3.9042153777095927,0
smt_24632,21.153084063739996,327.6,6.456985367442,3.904400748862347,0
smt_1873,21.152672213529584,327.6,6.456859650039555,3.904327284799002,0
smt_24509,21.152629171618948,327.6,6.456846511483194,3.9041265082190666,0
smt_24631,21.152303195066818,327.6,6.456747007041153,3.904261496406208,0
smt_24508,21.15220983644964,327.6,6.4567185092947605,3.904048659450163,0
smt_6527,21.151919837122172,327.6,6.45662998691153,3.904193187137911,0
smt_6426,21.151831834091105,327.6,6.456603123959434,3.903978520930528,0
smt_6420,21.15144646549224,327.6,6.456485490076995,3.903907051647939,0
smt_6140,21.151030061121176,327.6,6.456358382515622,3.9038298674401593,0
smt_6653,21.150632903674236,327.6,6.456237150083711,3.903756290407831,0
smt_6650,21.150241593098205,327.6,6.456117702410929,3.9036838343876603,0
smt_29445,21.14985776305384,327.6,6.456000538172722,3.9036127999315973,0
smt_24507,21.14946292704969,327.6,6.455880014361933,3.9035397662903013,0
smt_24506,21.149069456191437,327.6,6.455759907262343,3.9034670232293927,0
smt_24505,21.14866344023987,327.6,6.4556359707691895,3.90339200066596,0
smt_24459,21.148315082997886,327.6,6.455529634614739,3.9033276643376453,0
smt_24458,21.147895506997163,327.6,6.455401558912442,3.9032502145123726,0
smt_24457,21.147473330269403,327.6,6.455272689337424,3.9031723282092456,0
smt_24456,21.1470851447489,327.6,6.455154195588797,3.903100751447433,0
smt_24455,21.146686656046338,327.6,6.455032556790701,3.903027313380354,0
smt_24454,21.146304373517548,327.6,6.454915864932096,3.902956898618806,0
smt_19165,21.145882293388244,327.6,6.454787024843786,3.902879194964776,0
smt_17113,21.145440999532834,327.6,6.454652319759717,3.9027980008876235,0
smt_6993,21.144472920105652,327.6,6.4543568132190625,3.9026200505982174,0
smt_24453,21.143885573412742,327.6,6.454177525461764,3.9025121979523534,0
smt_24452,21.143431000413564,327.6,6.454038766915008,3.902428784272225,0
smt_24451,21.143032620349075,327.6,6.453917161278716,3.902355723618797,0
smt_24450,21.142656321070458,327.6,6.453802295809052,3.9022867482560226,0
smt_6394,21.14224466705117,327.6,6.453676638294008,3.9022113322440983,0
smt_24668,21.13534134434146,327.6,6.451569396929627,3.900952816272225,0
smt_29393,21.135180315989608,327.6,6.451520242976071,3.9009235993568843,0
smt_19218,21.13382707034621,327.6,6.451107164330344,3.900678318891241,0
smt_6502,21.133356219384734,327.6,6.450963436930627,3.9005930811375222,0
smt_24667,21.1331101696727,327.6,6.450888330180922,3.9005485606871435,0
smt_6683,21.132448651918374,327.6,6.450686401684484,3.90042893894455,0
smt_19220,21.131911928370204,327.6,6.450522566657571,3.9003319627952777,0
smt_22844,21.131538678449708,327.6,6.450408632005406,3.9002645651521917,0
smt_6687,21.13112856384207,327.6,6.450283444396235,3.9001905504392376,0
smt_24666,21.130821114851475,327.6,6.450189595498008,3.9001350912662436,0
rbt_637356,3.905569645184884,61.95,6.3043900648666416,2.9633412728147164,0
rbt_631391,5.6217447073840345,90.3,6.2256309051871925,4.714827593830833,0
sbt_28279,13.46554645540083,216.3,6.225402892002233,2.788877646109889,0
sbt_20214,13.465539004903187,216.3,6.225399447481824,2.7888777044782134,0
rbt_605855,4.63554105315447,76.65,6.047672606855146,2.844424603125674,0
rbt_1607255,5.413675568757714,90.3,5.995211039598798,2.8180682231528773,0
rbt_636933,4.507247965144946,76.65,5.880297410495689,2.766654657519831,0
rbt_605910,3.5400825735082764,61.95,5.714419004855975,2.684395120575896,0
rbt_627343,5.125998275463196,90.3,5.676631534289254,2.667371034085893,0
rbt_1607304,3.4435128433432554,61.95,5.558535663185238,2.6106359931681147,0
rbt_1607305,4.865877139384303,90.3,5.388568260669218,2.5332461252268437,0
rbt_1607285,3.3045410781363964,61.95,5.334206744368678,2.5047652850629554,0
rbt_606103,4.016172955685271,76.65,5.239625512961867,2.4628431988117225,0
rbt_3405846,4.003254685824855,76.65,5.222771931930665,2.4558010561947907,0
rbt_606109,3.1881097562670018,61.95,5.146262721980632,2.417695295001271,0
rbt_605825,4.6463030939271,90.3,5.145407634470764,2.419338784161404,0
sbt_4580,8.358342204399321,163.8,5.102773018558803,2.400787599174409,0
rbt_1631852,4.599013602096418,90.3,5.093038319043653,2.393794767881156,0
rbt_605993,4.572294599502173,90.3,5.0634491688839125,2.3795501809127333,0
rbt_621999,4.538950860307717,90.3,5.026523654825822,2.362591415362948,0
rbt_630753,4.536486469121786,90.3,5.023794539448268,2.3623832508732536,0
sbt_6049,8.19869721781858,163.8,5.0053096567879,2.355139405786982,0
rbt_607384,3.0027177781712275,61.95,4.847002063230391,2.2773353210693195,0
rbt_1607278,3.708768766401954,76.65,4.83857634233784,2.273467271744351,0
rbt_1628760,4.3556437334512355,90.3,4.823525729181878,2.266323021114363,0
rbt_3433894,4.331665240156975,90.3,4.7969714730420545,2.2551748149725923,0
rbt_1607357,3.654051760067579,76.65,4.767190815482817,2.240478205196583,0
sbt_25907,10.291382310296456,216.3,4.757920624270206,1.7582596525893797,0
sbt_21361,10.291375579805495,216.3,4.7579175126239,1.7582597529596704,0
sbt_20771,10.291370205210113,216.3,4.75791502783639,1.7582619055110866,0
smt_6110,15.41401220610557,327.6,4.705131931045655,2.722514632169632,0
smt_6802,14.93808191038922,327.6,4.5598540630003725,2.728459310557891,0
smt_24514,14.937545525638287,327.6,4.559690331391418,2.728340893278464,0
smt_24513,14.936988518435427,327.6,4.559520304772718,2.7282180127751126,0
smt_19166,14.93655147729539,327.6,4.559386897831316,2.7281216617297175,0
smt_6414,14.936124888587083,327.6,4.559256681497889,2.728027669312761,0
smt_18852,14.935693172765099,327.6,4.559124900111446,2.727932601807865,0
smt_6403,14.935214183073022,327.6,4.558978688361727,2.72782718850198,0
smt_1832,14.93479781329278,327.6,4.558851591359212,2.727735611191747,0
smt_1831,14.934392194674249,327.6,4.55872777615209,2.7276464477712987,0
smt_1829,14.933595917935973,327.6,4.558484712434668,2.7274715509032905,0
smt_1828,14.933019565953249,327.6,4.558308780816009,2.7273450760017806,0
smt_24515,14.840295742068491,327.6,4.530004805271212,2.6805039285304644,0
smt_6552,14.83991981645874,327.6,4.529890053864085,2.6804199424098414,0
smt_6549,14.839423144029114,327.6,4.529738444453331,2.6803090453528156,0
smt_23959,14.838989475008125,327.6,4.529606066852296,2.6802122764530085,0
smt_22744,14.838469254379214,327.6,4.529447269346525,2.6800962692689283,0
smt_19175,14.838036618771522,327.6,4.529315207195214,2.6799998553918356,0
smt_19177,14.83754403129816,327.6,4.529164844718608,2.679890149932891,0
smt_19176,14.83702637114267,327.6,4.529006828798129,2.6797749394750614,0
smt_19164,14.836800989451662,327.6,4.528938030968151,2.6797248038169226,0
smt_32311,14.836413190241375,327.6,4.528819655140834,2.6796385747286706,0
smt_39119,14.835948069857796,327.6,4.5286776770017685,2.6795352130083003,0
smt_32312,14.83592623201934,327.6,4.528671010994914,2.6795303619824806,0
smt_32310,14.83590842604216,327.6,4.528665575714945,2.6795264060467425,0
smt_32309,14.835478059539241,327.6,4.528534206208559,2.679430831038152,0
smt_32314,14.835281309426978,327.6,4.528474148176733,2.6793871555763253,0
smt_32313,14.83526636800051,327.6,4.528469587301743,2.679383839344379,0
smt_6350,14.762337333811118,327.6,4.506207977353821,2.6657847583582597,0
smt_24517,14.760222838256885,327.6,4.505562526940441,2.6655421201155955,0
smt_24520,14.759574913329534,327.6,4.505364747658588,2.6653972945174877,0
smt_19116,14.759268990013757,327.6,4.505271364473063,2.6653289580089607,0
rbt_605806,3.9913599029374573,90.3,4.420110634482234,2.0771440480343872,0
rbt_622714,3.931306408821598,90.3,4.353606211319599,2.0470236159134,0
rbt_1607258,3.286607478475521,76.65,4.287811452675174,2.0162710213165327,0
rbt_627328,3.8381601775940295,90.3,4.250454238753078,2.0002787429213877,0
smt_6066,6.961610214307305,163.8,4.250067285901895,2.398990646062142,0
smt_6062,6.961231782118722,163.8,4.249836252819732,2.3989664181612413,0
smt_6719,6.9608138943267,163.8,4.249581132067582,2.3989413003770754,0
smt_6176,6.960342766432368,163.8,4.249293508200468,2.398903738171543,0
smt_6144,6.959902733056913,163.8,4.249024867556113,2.398875347230653,0
smt_6227,6.9594362262831355,163.8,4.248740064885919,2.3988410397518183,0
smt_19063,6.958985482373369,163.8,4.248464885453827,2.3988097552980263,0
smt_6092,6.958538718131289,163.8,4.248192135611287,2.398772985103346,0
smt_29474,6.958151660985828,163.8,4.247955836987685,2.398752783075867,0
smt_29473,6.957718370188692,163.8,4.247691312691509,2.398724827732454,0
smt_19115,6.957284895467195,163.8,4.247426676109399,2.3986865285266,0
smt_24512,6.956943121735287,163.8,4.247218023037416,2.3986265410165513,0
sbt_5830,6.894647786122476,163.8,4.209186682614454,1.980295398826639,0
smt_37840,6.866981060043407,163.8,4.192296129452629,2.375455421660749,0
smt_6474,6.866671913961096,163.8,4.192107395580645,2.375437441234562,0
smt_19061,6.866288955175671,163.8,4.191873599008346,2.3754054329076313,0
smt_29476,6.8659148158497665,163.8,4.191645186721469,2.3753840190922144,0
smt_6594,6.865457971381171,163.8,4.191366282894488,2.3753484798029083,0
smt_29475,6.8649973423782775,163.8,4.1910850686070065,2.3753061868654295,0
smt_19011,6.864600294780957,163.8,4.190842670806445,2.375282173619658,0
smt_19014,6.864145162126985,163.8,4.190564812043336,2.3752476928838164,0
rbt_621168,3.1931595825236823,76.65,4.165896389463382,1.9580252915760807,0
rbt_1107330,3.747425144576443,90.3,4.149972474614001,1.952913893496432,0
rbt_605815,3.7471935820259814,90.3,4.149716037681043,1.9514105761318774,0
rbt_621171,2.5633704570763887,61.95,4.1378054190095055,1.9439862463092854,0
rbt_3422597,3.730468101506113,90.3,4.131193910859483,1.9428612404732692,0
rbt_606127,2.5444002365729044,61.95,4.107183594145123,1.9296326459850752,0
rbt_635966,2.5302883801281824,61.95,4.0844041648558225,1.9191514022850333,0
rbt_1124041,3.681038832389312,90.3,4.076454963886281,1.9170807086698343,0
rbt_605921,3.0329302820961788,76.65,3.9568562062572457,1.859918834574598,0
sbt_14007,6.447417450162148,163.8,3.936152289476281,1.8515034211656058,0
sbt_4118,11.266345395706288,286.65,3.9303489955368183,1.4094760456335862,0
rbt_627336,3.520086825940136,90.3,3.898213539247105,1.8316230876272377,0
rbt_1627321,3.506714379247938,90.3,3.8834046281815486,1.8253125485819661,0
rbt_1607355,3.492429009075509,90.3,3.867584727658371,1.817815300328988,0
rbt_605902,2.3953905446506774,61.95,3.8666514037944753,1.816975006088336,0
sbt_35173,4.865876738725126,128.1,3.7984986250781625,1.7857305528358285,0
rbt_1607358,2.9081134559102866,76.65,3.7940162503721937,1.783407346231553,0
sbt_21952,8.19869632321528,216.3,3.7904282585368843,1.7835031330203115,0
sbt_20840,6.172990316297653,163.8,3.7686143567140737,1.773322040258181,0
sbt_6273,6.1665525087001924,163.8,3.7646840712455387,1.7706403308809948,0
rbt_3405838,3.3507142261491123,90.3,3.7106469835538345,1.745963806068482,0
rbt_622273,2.132247771262838,57.75,3.6922039329226637,1.7378601763462516,0
rbt_1107341,2.28448875180921,61.95,3.6876331748332687,1.7346588492416701,0
rbt_638617,2.275325736149238,61.95,3.672842189102886,1.727654453174163,0
rbt_605828,3.3103769371978182,90.3,3.665976674637673,1.725076939215674,0
rbt_1607292,3.2465819694532816,90.3,3.5953288698264476,1.690372144809543,0
smt_6536,10.304931783008524,286.65,3.594952654110771,2.1427560210610945,0
smt_6703,10.304369678814496,286.65,3.59475655985156,2.1426380778829768,0
smt_6514,10.303818481116698,286.65,3.5945642704052676,2.142522612906131,0
smt_6984,10.303734345424251,286.65,3.5945349190386366,2.142505004649962,0
smt_5854,10.302878327449047,286.65,3.5942362907549446,2.1423261035380223,0
smt_5855,10.302236997880218,286.65,3.5940125581302005,2.142192368691957,0
smt_5657,10.301711362468621,286.65,3.5938291862789544,2.1420829500377403,0
smt_21743,10.301157219526765,286.65,3.5936358693622066,2.141967783524232,0
smt_22741,10.30058943393395,286.65,3.5934377931044663,2.1418499804173154,0
smt_6098,10.300138353570162,286.65,3.593280430340193,2.1417565346923126,0
smt_19120,10.299615266827269,286.65,3.593097947611118,2.1416483434149582,0
smt_22740,10.299097547011552,286.65,3.592917337174796,2.141541440028788,0
smt_22738,10.286179575529511,286.65,3.58841080604553,2.1364157076031405,0
smt_6754,10.28570725563812,286.65,3.5882460337129327,2.1363167036427524,0
smt_6567,10.285227126321585,286.65,3.588078537003867,2.136216204114587,0
smt_6746,10.28474984778264,286.65,3.587912034809922,2.1361164427706174,0
smt_6812,10.284280811749063,286.65,3.5877484080757243,2.1360185419221693,0
rbt_1635060,2.2030713977002123,61.95,3.5562088744151934,1.6721118216175272,0
rbt_1626490,3.211036918535061,90.3,3.555965579773047,2.693145697753097,0
sbt_37156,5.803970257622289,163.8,3.5433273856057927,1.664839228698505,0
rbt_605867,3.193201913839582,90.3,3.5362147440083964,1.6627630806821319,0
sbt_4615,5.72780356086975,163.8,3.496827570738553,1.6461032543274872,0
sbt_3373,5.727802341268892,163.8,3.496826826171484,1.6461024523803467,0
sbt_20793,5.727801223270771,163.8,3.4968261436329495,1.6461017227785293,0
sbt_4010,5.727799492779942,163.8,3.4968250871672413,1.6461006034394456,0
sbt_28804,5.727797923978399,163.8,3.496824129412942,1.6460995986633238,0
rbt_605812,3.1188543696399065,90.3,3.4538808080176153,1.6253384309820127,0
rbt_632613,3.115634442768896,90.3,3.4503149975292318,1.6227319638963602,0
rbt_622713,3.099362263975187,90.3,3.4322948659747365,1.612820762488747,0
rbt_606120,2.116175141116435,61.95,3.4159405022057063,1.6045597859265213,0
sbt_37537,7.331283972931165,216.3,3.3894054428715505,1.2926719527672024,0
sbt_37545,7.331275308763376,216.3,3.3894014372461285,1.2926725475161884,0
sbt_37546,7.331258552943306,216.3,3.3893936906811404,1.2926713069184577,0
sbt_26269,7.329959225001852,216.3,3.388792984281947,1.5934169169892265,0
sbt_37539,7.324204497160142,216.3,3.3861324536107915,1.75347002441958,0
sbt_37538,7.324198957594641,216.3,3.3861298925541563,1.7534705503400208,0
rbt_1132019,3.0182847367892647,90.3,3.342508014163084,1.5715363410256435,0
rbt_605863,3.0036742564975056,90.3,3.3263280802851667,1.5643699317637985,0
rbt_634166,2.523844519450843,76.65,3.292686913830193,1.5472594040370413,0
rbt_1138614,2.026542517726168,61.95,3.271255073004306,1.5380360749489579,0
rbt_605803,2.9168883246942174,90.3,3.230219628675767,1.5184141894182874,0
rbt_605834,2.8967923131708915,90.3,3.2079649093808325,1.5101316172287484,0
smt_29484,5.24081809201914,163.8,3.199522644700329,1.5855145112169728,0
smt_22951,5.240804568916082,163.8,3.199514388837657,1.5855062198786332,0
smt_19381,5.239464630839734,163.8,3.1986963558240133,1.5846860242302891,0
smt_18804,5.238767120391365,163.8,3.198270525269453,1.5842600719459308,0
smt_19380,5.237967851796978,163.8,3.1977825713046264,1.5837728286574662,0
rbt_605904,1.980797034169157,61.95,3.197412484534555,1.5013877500305173,0
smt_5349,5.237327521937042,163.8,3.197391649534213,1.5833831341155635,0
smt_18803,5.236677188046049,163.8,3.1969946202967328,1.5829879529343431,0
smt_13454,5.236013183039501,163.8,3.19658924483486,1.582585092361595,0
smt_19377,5.2352239340902775,163.8,3.196107407869522,1.5821070736079144,0
smt_29411,5.234231786937356,163.8,3.1955017014269567,1.5815074506601772,0
smt_8954,5.233622258110415,163.8,3.195129583705992,1.581139782904886,0
smt_5584,5.232911779362321,163.8,3.1946958359965327,1.5807119098424431,0
rbt_605810,2.44372053150681,76.65,3.188154639930606,1.498388077272167,0
rbt_605864,2.8718950147340534,90.3,3.1803931503145666,1.4957464221120966,0
smt_37837,6.867500985132143,216.3,3.1749888974258638,1.7989225816816214,0
smt_37841,6.867177607537212,216.3,3.174839393221087,1.798892403753933,0
rbt_609682,2.4212234654663036,76.65,3.158804260230011,1.4859296586759498,0
rbt_622703,1.942730170873272,61.95,3.135964763314402,2.375473295945588,0
rbt_605835,2.8310120873791,90.3,3.135118590674529,1.4758240840276002,0
smt_7052,5.1342668111801775,163.8,3.134473022698521,1.717773816116163,0
sbt_14006,5.124456512164563,163.8,3.1284838291602943,1.4710883794869372,0
sbt_27416,6.672248256054032,216.3,3.0847194896227608,1.4505647497425977,0
sbt_15213,6.672248209967844,216.3,3.084719468316155,1.4505647397973906,0
rbt_606128,2.3514038952136707,76.65,3.067715453638187,1.4416449527364392,0
rbt_1607257,2.745226612356868,90.3,3.0401180646255463,1.4289865182820893,0
rbt_607385,2.74006911045992,90.3,3.034406545359823,1.4271266214534588,0
rbt_3405845,2.731206669181912,90.3,3.024592103191486,1.423711233337044,0
rbt_633056,2.7274627543156607,90.3,3.0204460180682844,1.420009915168718,0
rbt_606141,2.724757225482002,90.3,3.0174498621063144,1.4203217110935382,0
rbt_623015,2.7172329285340857,90.3,3.0091173073467172,2.2791333069015463,0
sbt_34389,3.83815891480124,128.1,2.996220854645777,2.3052708845149366,0
rbt_605982,2.662334848315798,90.3,2.9483220911581376,1.3870102379558078,0
rbt_1606000,2.660852456296799,90.3,2.9466804610152812,1.3853077865224714,0
smt_37855,6.366689750625983,216.3,2.9434534214637,1.5564542909224255,0
smt_37854,6.366356803578852,216.3,2.943299493101642,1.5564793082993196,0
smt_37853,6.3660504762024654,216.3,2.9431578715684075,1.5565097493085878,0
smt_37852,6.365736110783156,216.3,2.943012533880331,1.5565354706458396,0
smt_37851,6.3654400703788605,216.3,2.942875668228784,1.556566401012975,0
smt_37850,6.365132202857837,216.3,2.9427333346545708,1.5565958749619995,0
smt_37849,6.364825650020936,216.3,2.94259160888624,1.5566282587935356,0
smt_37848,6.364508208494393,216.3,2.94244484904965,1.5566593392111103,0
smt_37847,6.3641920228339695,216.3,2.942298669826153,1.5566697798539038,0
smt_37846,6.363969829353584,216.3,2.942195945147288,1.5567103828980076,0
smt_37845,6.363666595087635,216.3,2.942055753623502,1.5567457117163948,0
smt_38000,6.363343439565379,216.3,2.941906352087554,1.556767650434247,0
smt_38002,6.363069811995864,216.3,2.9417798483568487,1.5567350212553304,0
smt_38001,6.3630627195755585,216.3,2.9417765693830598,1.5567368647301867,0
smt_37843,6.363051948366902,216.3,2.941771589628711,1.5568034131788033,0
smt_37842,6.362754008775493,216.3,2.9416338459433624,1.5568016499378283,0
smt_37838,6.362600052713588,216.3,2.9415626688458563,1.5568392346993258,0
rbt_1629639,2.648670464994621,90.3,2.9331898837149737,1.3780803669240511,0
sbt_3952,4.790748851300697,163.8,2.924755098474174,1.3762892403904654,0
sbt_4120,4.790747417654498,163.8,2.924754223232294,1.376288316281548,0
sbt_20855,4.790746021907066,163.8,2.924753371127635,1.3762874228954096,0
sbt_20854,4.790744697911857,163.8,2.9247525628277518,1.3762865809677998,0
rbt_635963,1.810227340660848,61.95,2.922078031736639,1.372557128182321,0
smt_25186,4.7352203897106895,163.8,2.8908549387733147,1.5896538213005502,0
rbt_626481,2.6039377546052833,90.3,2.883651998455463,1.355411826852518,0
rbt_1607306,2.1959702084655883,76.65,2.864931778820076,1.3470076199314116,0
rbt_605901,2.5783579843017668,90.3,2.855324456591104,1.3416458878478326,0
rbt_605820,2.1854497626544704,76.65,2.8512064744350556,1.3409354423614515,0
rbt_3405847,2.5733635642050308,90.3,2.8497935373256156,1.341291303841385,0
rbt_1607289,2.170455146740476,76.65,2.8316440270586765,1.3306535643088087,0
sbt_34000,6.124682490717767,216.3,2.831568419194529,1.3308636553593731,0
sbt_20828,4.596051177147696,163.8,2.8058920495407174,1.3187974053464655,0
rbt_1609690,2.4955143641106696,90.3,2.76358179857217,1.2984907584543557,0
sbt_34382,3.514181265360419,128.1,2.7433109019207023,1.2891444863253525,0
rbt_1625170,2.4754050989866574,90.3,2.74131240197858,1.2881295524778922,0
rbt_605821,3.4999408604493647,128.1,2.7321942704522755,1.2837313603519245,0
sbt_35105,3.4924286436312815,128.1,2.726329932577113,1.2814104917392155,0
smt_37856,5.872161921265901,216.3,2.7148228947137776,1.4615867369633913,0
smt_15243,4.444518115776543,163.8,2.7133810230626025,1.5638984624407557,0
smt_26472,4.444113609668419,163.8,2.7131340718366412,1.563901062278359,0
smt_14780,4.44365538764637,163.8,2.7128543270124355,1.5638950410978543,0
smt_14754,4.44319841250407,163.8,2.712575343409078,1.5638898725779207,0
smt_14729,4.44274398102496,163.8,2.7122979127136504,1.5681639874352369,0
smt_21229,4.442282935101474,163.8,2.7120164438958936,1.5681544833963235,0
smt_26474,4.4418487267839835,163.8,2.711751359452981,1.568142081570201,0
smt_22453,4.441465955627819,163.8,2.7115176774284606,1.5681522808515223,0
smt_14544,4.44100642849322,163.8,2.7112371358322465,1.5681500625025002,0
smt_14113,4.440547752619087,163.8,2.7109571139310664,1.5681566957377289,0
smt_22508,4.440044854086217,163.8,2.710650094069729,1.5681465424614336,0
smt_14452,4.439601767673698,163.8,2.710379589544382,1.568135178767764,0
smt_30311,4.439230147971435,163.8,2.7101527154892766,1.5681522486104262,0
smt_26478,4.438772113042075,163.8,2.7098730848852717,1.568140980995792,0
rbt_605988,2.4440094013765044,90.3,2.70654418757088,1.2736415632661837,0
smt_6512,7.685495714430541,286.65,2.681142757519812,1.6145634184538091,0
smt_6425,7.685126301356431,286.65,2.681013885001372,1.6145017284344672,0
smt_6930,7.684560493554504,286.65,2.680816498710799,1.6144024467487208,0
rbt_605804,1.6565222854398391,61.95,2.6739665624533315,1.2566149990290494,0
sbt_6048,4.331618863935565,163.8,2.644455960888623,1.2443589335351608,0
smt_856,4.326520230282787,163.8,2.6413432419308833,1.5304561481882633,0
smt_15622,4.326018009054894,163.8,2.641036635564648,1.5304181534868555,0
smt_23196,4.325739022238555,163.8,2.640866313942952,1.5304227991843316,0
smt_15581,4.325440038010298,163.8,2.640683783889071,1.5304288783420406,0
smt_15568,4.3251165209465965,163.8,2.6404862765241734,1.5304294758605568,0
rbt_605829,2.3817922757978676,90.3,2.6376437162767083,1.2399553343381897,0
smt_22686,7.546592145825625,286.65,2.6326852069860895,1.6550595554803733,0
smt_6239,7.546156158814737,286.65,2.6325331096510514,1.6549815950234723,0
smt_23961,7.545730659823452,286.65,2.632384671140224,1.6549059064997538,0
smt_29407,7.545297893756646,286.65,2.632233697455659,1.6548284253264915,0
smt_6278,7.544910348834468,286.65,2.6320984995061814,1.6547605571583517,0
smt_6630,7.5444585668156465,286.65,2.6319408919642933,1.6546806797283296,0
smt_19070,7.5440047100594025,286.65,2.6317825606347123,1.654600603481437,0
smt_6639,7.543551199067286,286.65,2.6316243499275376,1.6545203759254585,0
sbt_15045,5.6920899301546815,216.3,2.631571858601332,1.2377313162310088,0
smt_19117,7.543127941418111,286.65,2.631476693325697,1.654445679295346,0
smt_21514,7.525925681610338,286.65,2.625475556117334,1.649329964597926,0
smt_5615,7.525486415133065,286.65,2.6253223147158784,1.64924838534042,0
smt_18742,7.525144369945045,286.65,2.625202989689533,1.649187733773351,0
smt_6270,7.524607257609832,286.65,2.6250156140275016,1.6490883699462457,0
smt_5967,7.524189573817519,286.65,2.624869901907385,1.6490130438911181,0
smt_5772,7.523696935543586,286.65,2.624698041354818,1.648923425047305,0
smt_6158,7.523209792836178,286.65,2.6245280979718046,1.6488343633774536,0
smt_6263,7.522787977349999,286.65,2.6243809444793302,1.648759194733688,0
smt_6384,7.522264948302646,286.65,2.6241984818777766,1.6486646943494268,0
smt_22684,7.521753278307037,286.65,2.624019981966523,1.6485715118605955,0
smt_22685,7.5213358662750895,286.65,2.623874364652046,1.6484968146875716,0
smt_29447,7.520898307555845,286.65,2.6237217190147724,1.648418823439153,0
smt_19065,7.520429634742387,286.65,2.6235582189926347,1.6483358488882676,0
smt_24385,7.519900162762493,286.65,2.6233735087257957,1.6482413471144246,0
rbt_1607316,2.355546649189555,90.3,2.608578792015011,1.976578998983057,0
rbt_1107342,1.6157460229548075,61.95,2.608145315504128,1.2262561394993592,0
smt_29448,7.471164874386837,286.65,2.606371838265075,1.63668000175461,0
smt_6824,7.470741323482229,286.65,2.60622407935888,1.6365989202135758,0
smt_6855,7.470287242495217,286.65,2.6060656698047158,1.6365125429389293,0
smt_19062,7.469757062681595,286.65,2.605880712604778,1.6364103492971023,0
smt_7054,7.469335728189126,286.65,2.6057337269105623,1.6363300929667934,0
smt_6446,7.468905308648314,286.65,2.6055835718291696,1.6362482944970134,0
smt_39006,7.468464392112349,286.65,2.6054297547923775,1.6361642064305182,0
smt_39008,7.468066036366331,286.65,2.605290785406011,1.6360853551140806,0
smt_39007,7.468049249251398,286.65,2.6052849290952027,1.6360854270770444,0
smt_6122,7.467667016049443,286.65,2.6051515841791186,1.6360140769507732,0
smt_18741,7.467184742707604,286.65,2.6049833395107638,1.6359227803727274,0
smt_5938,7.466738010024386,286.65,2.60482749346743,1.635839380266308,0
smt_5946,7.466222245669759,286.65,2.6046475652083583,1.6357421479502168,0
smt_37925,5.612087437405753,216.3,2.5945850380978976,1.4028473671604413,0
smt_37924,5.61193878557564,216.3,2.5945163132573463,1.402906592757984,0
smt_37923,5.6116207537303255,216.3,2.5943692805040803,1.4029445351500558,0
smt_37864,5.611307366892136,216.3,2.5942243952344595,1.4029429599294148,0
smt_37863,5.611158938153904,216.3,2.5941557735339362,1.4029613718685328,0
smt_37862,5.611010693230028,216.3,2.594087236814622,1.4030036502744458,0
smt_37861,5.610765888412287,216.3,2.593974058443036,1.4030472076575826,0
smt_37860,5.610469622111148,216.3,2.593837088354668,1.4030888620119253,0
smt_37859,5.6101573263869176,216.3,2.5936927075297813,1.403109091374694,0
smt_37858,5.60992471510072,216.3,2.5935851664820713,1.4031613612868583,0
smt_37831,5.609603187505618,216.3,2.5934365175707894,1.4031610023610532,0
smt_37898,5.595612684768913,216.3,2.58696841644425,1.3937001295868712,0
smt_37897,5.595254336843913,216.3,2.586802744726728,1.3937171972859643,0
smt_37896,5.594943082701711,216.3,2.5866588454469306,1.3937451510630503,0
smt_37895,5.594609330559415,216.3,2.586504544872591,1.3937695164898125,0
smt_37894,5.594281025854557,216.3,2.586352762762162,1.39379128308338,0
smt_37893,5.593970608804725,216.3,2.5862092504876215,1.3938184263308029,0
smt_37892,5.593646687929945,216.3,2.586059495113243,1.39384182711262,0
smt_37891,5.593334359353539,216.3,2.5859150991001103,1.3938711163265338,0
smt_37890,5.593002349179981,216.3,2.5857616038742397,1.3939225982617656,0
smt_37889,5.592553914565036,216.3,2.585554283201588,1.39391324548399,0
smt_37888,5.59232863901069,216.3,2.5854501336156677,1.3939301601528926,0
smt_37887,5.592113019331308,216.3,2.585350448142075,1.3939733443222817,0
smt_37886,5.591779444903661,216.3,2.5851962297289233,1.393999478436924,0
smt_37885,5.591458151202998,216.3,2.5850476889519176,1.3940281946603947,0
smt_37884,5.591133686493964,216.3,2.5848976821516243,1.394057093785676,0
smt_37883,5.590808245169007,216.3,2.5847472238414273,1.3940883238641797,0
smt_37882,5.590473144137779,216.3,2.584592299647609,1.39411632089865,0
smt_37881,5.590149249303487,216.3,2.5844425563122915,1.394147115957505,0
smt_37880,5.589820640182529,216.3,2.584290633463952,1.394173389422236,0
smt_37879,5.58951182611974,216.3,2.5841478622837446,1.3942093893218221,0
smt_37878,5.589171446478615,216.3,2.583990497678509,1.3942374013184768,0
smt_37877,5.588851380880349,216.3,2.583842524678848,1.3942708787543003,0
smt_37876,5.5885196941465995,216.3,2.583689178985945,1.394303621541128,0
smt_37875,5.588186606392967,216.3,2.583535185572338,1.3943368615662939,0
smt_37874,5.587852313111729,216.3,2.5833806348181825,1.3943681779918797,0
smt_37873,5.5875277389253295,216.3,2.5832305774042204,1.3943958166102768,0
smt_37945,5.587226528716725,216.3,2.5830913216443476,1.3944071077338203,0
smt_37944,5.587011863635149,216.3,2.5829920775012245,1.3944375424484694,0
smt_37943,5.586760579031427,216.3,2.5828759033894717,1.3944737476602906,0
smt_37942,5.586465130618597,216.3,2.5827393114279227,1.3945042464872177,0
smt_37941,5.586172264181149,216.3,2.582603913167429,1.3945347359636358,0
smt_37940,5.585882199549995,216.3,2.5824698102404042,1.3945672684056598,0
smt_37939,5.585586112526367,216.3,2.5823329230357683,1.3946008179272384,0
smt_37938,5.585283870563463,216.3,2.5821931902743698,1.394634755976807,0
smt_37937,5.584978200039079,216.3,2.582051872417512,1.3946673766168833,0
smt_37936,5.584677866158903,216.3,2.581913021802544,1.3947009974679319,0
smt_37935,5.584377486621408,216.3,2.5817741500792453,1.3947281801404623,0
smt_37934,5.584105861974898,216.3,2.581648572341608,1.3947650875510194,0
smt_37933,5.5838091129190905,216.3,2.581511379065691,1.3947996396406357,0
smt_37932,5.583510779437196,216.3,2.581373453276558,1.394834336824393,0
smt_23147,4.223154887334612,163.8,2.5782386369564176,1.5051210432331883,0
smt_16038,4.222869368510447,163.8,2.578064327539955,1.5052198972110913,0
sbt_22669,5.551535998922294,216.3,2.5665908455489106,1.2065893306535729,0
rbt_3405987,1.5897684071126827,61.95,2.5662121180188584,1.2080040238989744,0
rbt_1132012,2.307490790329564,90.3,2.5553607866329613,1.2009661338916293,0
smt_37986,5.526383278111964,216.3,2.5549622182672045,1.413846349236515,0
smt_37987,5.526151243553302,216.3,2.554854943852659,1.4138580799230454,0
smt_37993,5.525854863499011,216.3,2.554717921173838,1.4138404147251575,0
smt_37920,5.525706711701237,216.3,2.554649427508662,1.4138726034342888,0
smt_37919,5.525347179303061,216.3,2.554483208184494,1.413876552642847,0
smt_37918,5.524994357364272,216.3,2.554320091245618,1.4138795206864943,0
smt_37917,5.52465694171228,216.3,2.5541640969543598,1.4138863428116906,0
smt_37916,5.524309393318874,216.3,2.554003418085471,1.4138915080635766,0
smt_37915,5.523966671833051,216.3,2.5538449707966024,1.4138845812782959,0
smt_37914,5.523712141954899,216.3,2.553727296326814,1.4139010593264814,0
smt_37913,5.523378989487597,216.3,2.553573272994728,1.413910264590472,0
smt_37912,5.523028510779924,216.3,2.553411239380455,1.4139159241233692,0
smt_40685,5.522689173803438,216.3,2.5532543568208217,1.4139204680037156,0
smt_37911,5.522367838475355,216.3,2.553105796798592,1.4138819514586867,0
smt_37910,5.522349004973148,216.3,2.5530970896778307,1.4139320811705387,0
smt_37909,5.52200424896731,216.3,2.5529377017879376,1.413939364169676,0
smt_37908,5.521666390046387,216.3,2.55278150256421,1.4139502754329947,0
smt_40683,5.5213132143425945,216.3,2.5526182220723967,1.4139557155497338,0
smt_37906,5.52098503448427,216.3,2.5524664976811233,1.4139665705127598,0
smt_37905,5.520645081691696,216.3,2.5523093304168727,1.4139725688289584,0
rbt_1607268,1.9562775351471107,76.65,2.5522211808833797,1.1993432982949115,0
smt_37904,5.520328692936113,216.3,2.552163057298249,1.413982058246089,0
smt_37903,5.520011449701377,216.3,2.5520163891360963,1.4139794979098752,0
sbt_35588,5.506610323440277,216.3,2.545820769043124,1.1964128180946871,0
rbt_605823,2.2972048907104483,90.3,2.5439699786383705,1.1962531052918182,0
smt_13546,4.166525605691018,163.8,2.5436664259407924,1.488250012090182,0
smt_21225,4.166242320131135,163.8,2.543493479933538,1.4882852487186315,0
smt_13930,4.16573290580572,163.8,2.5431824821768743,1.4882815658236648,0
smt_21226,4.165227481291729,163.8,2.5428739202025206,1.4882595453552299,0
smt_13280,4.164841003796846,163.8,2.5426379754559503,1.4882558594327084,0
smt_14437,4.164473250757623,163.8,2.5424134620009906,1.488256693756937,0
smt_13955,4.164102626111952,163.8,2.542187195428542,1.48825862943089,0
smt_26469,4.1637273208695955,163.8,2.541958071348959,1.4882520514085587,0
smt_20808,4.163399464472605,163.8,2.54175791481844,1.4882570680745923,0
smt_23095,4.163056295874744,163.8,2.5415484101799413,1.488229158584016,0
smt_20807,4.162883295403301,163.8,2.5414427932865085,1.4882658203250057,0
smt_13717,4.162518680686552,163.8,2.541220195779336,1.4882564363456678,0
smt_37963,5.478075276354394,216.3,2.5326284218004593,1.3924250842312123,0
smt_37983,5.477632893832404,216.3,2.5324238991365715,1.3924264922695573,0
smt_37984,5.477183436957675,216.3,2.532216105851907,1.3924265424674225,0
smt_37985,5.476741443537276,216.3,2.5320117630777976,1.392427162210706,0
smt_37947,5.476306807462683,216.3,2.5318108217580595,1.3924241894842648,0
smt_37948,5.475909376174449,216.3,2.5316270809868002,1.3924281361289716,0
sbt_21281,4.123074313120607,163.8,2.517139385299515,1.1826686074942725,0
smt_14797,4.11685424165779,163.8,2.513342027874108,1.4717809737166903,0
smt_23041,4.116489057454619,163.8,2.5131190826951277,1.4717746213277962,0
smt_14823,4.116119167884384,163.8,2.512893264886681,1.471768876129868,0
smt_13752,4.115744119091721,163.8,2.512664297369793,1.4717043729544705,0
smt_23225,4.098955270508305,163.8,2.502414695060015,1.4651998289090902,0
smt_21220,4.09854012066499,163.8,2.502161245827222,1.4651882210059168,0
smt_14845,4.098106658547229,163.8,2.5018966169397,1.4651766093849146,0
smt_26425,4.0976581709278594,163.8,2.501622814974273,1.4651630205763901,0
smt_20810,4.097212789233607,163.8,2.501350909178026,1.4651404538619193,0
smt_26429,4.096837936823221,163.8,2.5011220615526377,1.465130744321839,0
smt_26430,4.096466346819786,163.8,2.5008952056286846,1.4651220042162179,0
smt_21222,4.080020921182271,163.8,2.4908552632370395,1.459119451747501,0
smt_14301,4.079730648090513,163.8,2.4906780513373095,1.4591185627717103,0
smt_23277,4.079364114367025,163.8,2.490454282275351,1.4591004139086612,0
smt_26427,4.079019555805314,163.8,2.490243929063073,1.4590900545260326,0
smt_20812,4.078656637190697,163.8,2.4900223670272874,1.4590770705693412,0
smt_15154,4.07829314369753,163.8,2.489800454027796,1.4590615006623098,0
smt_14674,4.077950552009755,163.8,2.4895913015932565,1.4590613998639963,0
rbt_605989,2.2442748013527596,90.3,2.485354154321993,1.1680445901061869,0
rbt_1121173,2.2406615062966133,90.3,2.4813527201512886,1.1670568461712063,0
rbt_605807,2.234906055516456,90.3,2.4749790205054882,1.1643034660351417,0
rbt_606130,1.8822434829019632,76.65,2.4556340285739897,1.153840637785323,0
sbt_3491,4.016169693164634,163.8,2.4518740495510585,1.1524822851944638,0
rbt_637399,1.5100183354569436,61.95,2.4374791532799733,1.1453821269293791,0
sbt_21191,3.98388254949717,163.8,2.432162728630751,1.1434367200134994,0
sbt_26310,3.9313059991732557,163.8,2.4000647125599848,1.1284871224341189,0
rbt_637705,2.1546512092760444,90.3,2.3861032217896394,1.8074217857999308,0
rbt_1105833,2.148012254826272,90.3,2.378751112764421,1.1181285694153453,0
smt_29426,5.134988955909656,216.3,2.3740124622790826,1.3011625297808012,0
rbt_1607276,2.139018957821658,90.3,2.3687917583850036,1.1130211401371612,0
smt_37960,5.071590947048129,216.3,2.344702240891414,1.3204574731344196,0
smt_37962,5.071211866840944,216.3,2.344526984207556,1.3204606320182064,0
smt_37981,5.0547933390641715,216.3,2.3369363564790437,1.2985275465975705,0
smt_37951,5.054437795152699,216.3,2.336771981115441,1.2985301399817617,0
smt_37952,5.054081758404488,216.3,2.336607377903138,1.298544698021747,0
smt_37953,5.053643643865562,216.3,2.3364048284168106,1.2985467104431745,0
smt_37954,5.0532217599288884,216.3,2.3362097826763235,1.3005806170030236,0
smt_37955,5.05276413224016,216.3,2.3359982118539806,1.3005731149140656,0
smt_37956,5.0523963216795105,216.3,2.3358281653626953,1.3005876373561416,0
smt_37957,5.051961449727332,216.3,2.3356271149918317,1.3005936003734229,0
smt_37958,5.05152923166294,216.3,2.3354272915686267,1.3006017456085095,0
smt_37959,5.051088953753471,216.3,2.3352237419109896,1.3006082513699324,0
rbt_1607319,2.105956637539213,90.3,2.332177893177423,1.6565728278935012,0
rbt_622709,2.103374042622686,90.3,2.329317876658567,1.0950613181193496,0
rbt_1607328,2.1014493769661393,90.3,2.3271864639713615,1.0942343848606646,0
rbt_607366,2.100265953941757,90.3,2.325875917986442,1.09298638173487,0
sbt_21953,3.747425397344298,163.8,2.2878054928841864,1.076606394687748,0
sbt_21849,3.7474253369142367,163.8,2.2878054559915975,1.0766063771073113,0
sbt_21968,3.747425263710483,163.8,2.2878054113006607,1.076606355859151,0
smt_37979,4.942358517388782,216.3,2.2849553940771066,1.285759635907356,0
smt_37980,4.941976834200553,216.3,2.2847789339808378,1.2857389994696675,0
rbt_1633892,2.0296868391339786,90.3,2.2477152149877946,1.0563858349223618,0
sbt_21137,3.6810362466538007,163.8,2.247274875857021,1.0568505685092013,0
rbt_1134165,2.025157440649247,90.3,2.242699269821979,1.0552361809277973,0
rbt_1131858,2.023889666512728,90.3,2.2412953117527445,1.0542801264888617,0
smt_6074,6.419587991900538,286.65,2.2395213646958094,1.3359287936836879,0
smt_6082,6.419141330324341,286.65,2.2393655434586925,1.3358647552533507,0
smt_6649,6.418701207566063,286.65,2.239212003337193,1.3358017980036268,0
smt_29408,6.418270957013877,286.65,2.239061907208748,1.335740864426229,0
smt_6422,6.417839861733692,286.65,2.2389115163906133,1.3356801121862023,0
smt_22683,6.417406622235175,286.65,2.238760377545849,1.3356191873615135,0
smt_22793,6.4004309359694185,286.65,2.2328382822150425,1.3231069082025113,0
smt_22790,6.399977800899182,286.65,2.2326802026510317,1.323037284358524,0
smt_29449,6.399704003726647,286.65,2.2325846864561827,1.3238260564939888,0
smt_6370,6.399540437211884,286.65,2.2325276250521138,1.322970801911499,0
smt_6401,6.39926800843767,286.65,2.2324325862332706,1.3237620733533093,0
smt_29409,6.399100866211775,286.65,2.2323742774155853,1.3229047510091922,0
smt_21348,6.398829611023854,286.65,2.232279648011113,1.3237117666686298,0
smt_5650,6.398640416390018,286.65,2.232213646045707,1.3228350787197416,0
smt_6094,6.398185917179922,286.65,2.2320550905912864,1.3227637815595452,0
smt_29477,6.397836966516613,286.65,2.2319333565381525,1.3227136721850437,0
smt_29450,6.3974105706487885,286.65,2.2317846051452253,1.3226512349483823,0
smt_6231,6.396941855027684,286.65,2.2316210901893196,1.3225807090537562,0
smt_6340,6.396502681907819,286.65,2.231467881356295,1.3225160927410864,0
rbt_1607353,2.006090042704183,90.3,2.2215836574797154,1.044096219005229,0
sbt_34390,3.6262805377422085,163.8,2.2138464821381003,1.6769770955045977,0
smt_6581,6.338400598716351,286.65,2.2111985343507246,1.299172845503583,0
smt_6701,6.337958227392259,286.65,2.2110442098001952,1.299111076847813,0
smt_21959,6.337472512468603,286.65,2.21087476451024,1.299039980543901,0
smt_19219,6.3295013774737585,286.65,2.2080939743498202,1.2889785819094752,0
smt_5952,6.329031055707312,286.65,2.2079298990780787,1.2889026161270758,0
smt_29478,6.328540660831684,286.65,2.2077588211518173,1.288822012089609,0
smt_22841,6.328108632655644,286.65,2.207608104885974,1.288753128671152,0
smt_6660,6.327642020488098,286.65,2.2074453237356004,1.2886777729020018,0
smt_22845,6.2918678297685044,286.65,2.194965229293042,1.267641689728948,0
smt_18913,6.291321794737163,286.65,2.19477474088162,1.2675519166766127,0
smt_5786,6.29079266512646,286.65,2.1945901500528384,1.2674641104218491,0
smt_29479,6.2903372130540225,286.65,2.1944312621852515,1.2673903500927863,0
smt_19224,6.2898692125749625,286.65,2.1942679967120053,1.2673150706833443,0
smt_25183,4.734587758455765,216.3,2.188898640062767,1.2035241032966462,0
smt_25117,4.733941862963205,216.3,2.1886000291092023,1.203226901181864,0
smt_25116,4.733278010968932,216.3,2.188293116490491,1.2029217744950589,0
smt_25115,4.732758681903708,216.3,2.188053019835279,1.2026833144830782,0
smt_25114,4.732302943933787,216.3,2.1878423226693418,1.202474227544416,0
smt_25113,4.731771158845268,216.3,2.1875964673348443,1.2022304571994178,0
smt_25112,4.731209494358114,216.3,2.187336798131352,1.20197323186507,0
smt_25111,4.730841558899153,216.3,2.187166693896973,1.2018048637468606,0
smt_25110,4.730575823067256,216.3,2.187043838681117,1.2016833289664448,0
smt_25109,4.7298750126811635,216.3,2.18671983942726,1.201363080896164,0
smt_25108,4.729341524391112,216.3,2.18647319666718,1.201119555797478,0
smt_25107,4.72862294298754,216.3,2.1861409815014055,1.2007918994733207,0
smt_25106,4.727995642491387,216.3,2.185850967402398,1.2005062038078569,0
smt_25105,4.727354029361643,216.3,2.1855543362744534,1.2002143175091267,0
smt_29427,4.726712199570932,216.3,2.1852576049796264,1.1999226656554922,0
smt_6407,4.725442066165748,216.3,2.1846703958232765,1.199346495070591,0
smt_22794,4.72481002892435,216.3,2.1843781918281784,1.1990602750809785,0
smt_6477,4.724112601503967,216.3,2.1840557565899066,1.1987448236164495,0
smt_6641,4.723206711136114,216.3,2.183636944584426,1.1983356817925908,0
smt_6157,4.722570748189466,216.3,2.183342925653937,1.1980488578396324,0
smt_6694,4.721852602057361,216.3,2.1830109117232364,1.197725373389882,0
sbt_20633,3.4718694701652457,163.8,2.1195784311143133,1.398840326996516,0
smt_37973,4.58193260055935,216.3,2.118322977604877,1.2199282586386577,0
smt_37991,4.581768740509978,216.3,2.118247221687461,1.2199398165834896,0
smt_37974,4.581537817292012,216.3,2.118140461068891,1.2199662509677258,0
smt_37990,4.581144239162848,216.3,2.1179585016934106,1.2199676850970247,0
smt_37975,4.580780362905079,216.3,2.11779027411238,1.2199778607854,0
smt_37976,4.580386725488311,216.3,2.1176082873270046,1.2199839164466626,0
smt_37977,4.5799986647319715,216.3,2.1174288787480218,1.2199884481144896,0
smt_37978,4.579629484056389,216.3,2.1172581988240355,1.220002043132107,0
smt_37970,4.539840107032116,216.3,2.09886274019053,1.2103211514979966,0
smt_37971,4.539324497608008,216.3,2.0986243632029624,1.21029081524501,0
smt_37972,4.539058054584553,216.3,2.0985011810377032,1.210308882200742,0
sbt_4619,4.538950672226458,216.3,2.0984515359345624,0.9863244831629848,0
smt_37989,4.5386778615511645,216.3,2.098325409871088,1.2103911617754755,0
smt_37964,4.438394928930521,216.3,2.0519625191541935,1.1875013258259468,0
smt_37965,4.437051187490226,216.3,2.0513412794684354,1.1875120953895277,0
smt_37994,4.436875874806759,216.3,2.0512602287594817,1.1874898947114376,0
smt_37995,4.436871728741437,216.3,2.051258311947035,1.187490239196664,0
smt_37996,4.436866731905361,216.3,2.05125600180553,1.1875327234164945,0
smt_37966,4.4365630802927,216.3,2.051115617333657,1.1875467456224236,0
smt_37967,4.436191970437278,216.3,2.050944045509606,1.18755398572591,0
smt_37968,4.435811571249447,216.3,2.0507681790334935,1.187559578995203,0
smt_37969,4.435438344444108,216.3,2.0505956284993565,1.1875539379107412,0
rbt_606110,1.261470993648586,61.95,2.0362727903931974,0.9567177181672465,0
rbt_1607284,1.8320537267513153,90.3,2.028852410577315,0.9537528987790229,0
rbt_1607302,1.241617113706052,61.95,2.004224558040439,0.9416446612776114,0
rbt_607382,1.791087251655563,90.3,1.9834853285222183,0.9324662514963552,0
rbt_1607273,1.5190587236636472,76.65,1.9818117725553128,0.931202059090725,0
sbt_26614,3.2110366403031074,162.75,1.97298718298194,1.4942613108358254,0
sbt_26512,3.211035045281124,162.75,1.9729862029377105,1.4942603197634485,0
sbt_16246,3.211034464195623,162.75,1.972985845895928,1.4942599592425043,0
sbt_5828,3.2110317151594123,163.8,1.9603368224416435,1.4846796783289413,0
sbt_3790,3.1881091124658516,163.8,1.946342559502962,0.9143843632280243,0
rbt_1137150,1.19869696518103,61.95,1.9349426395174012,0.9095975615156725,0
rbt_3405843,1.742391401216073,90.3,1.9295585838494718,0.9073020451453134,0
rbt_1607288,1.4644330959658856,76.65,1.9105454611427077,0.8979540837889123,0
rbt_605817,1.4568497459578778,76.65,1.9006519842894685,0.893357610349817,0
smt_13591,3.0965460457375618,163.8,1.8904432513660328,0.9378198469409286,0
sbt_30492,2.351401519855246,124.95,1.8818739654703847,0.8843685029535137,0
rbt_607387,1.690613026358078,90.3,1.8722181908727333,0.8798123485146009,0
sbt_21147,2.395354935254885,128.1,1.8699101758430017,0.8786729552301521,0
sbt_17923,2.395349436373232,128.1,1.8699058831953415,0.8786686255620489,0
rbt_626695,1.683551479144177,90.3,1.8643980942903402,1.4122744854879234,0
rbt_623432,1.6833990835694197,90.3,1.8642293284268214,0.8765062861983886,0
sbt_3473,3.0329279473250192,163.8,1.8516043634462873,0.8703451845869491,0
sbt_26790,3.9949627048885086,216.3,1.8469545561204386,0.8683786696899469,0
smt_18691,5.2602498166894724,286.65,1.8350775568426558,0.9651532093416789,0
smt_18692,5.259556918522574,286.65,1.834835834126138,0.9649835834951114,0
smt_22142,5.2589394021390765,286.65,1.8346204089094982,0.9648329050821375,0
smt_29410,5.258379104311271,286.65,1.834424944814677,0.9646965922505025,0
smt_4821,5.2578446584671505,286.65,1.8342384993780398,0.9645669280017507,0
smt_18693,5.257193941067927,286.65,1.8340114917383317,0.9644095294977232,0
smt_5832,5.25659442521635,286.65,1.8338023461421074,0.9642649788841281,0
smt_18694,5.255966792599662,286.65,1.8335833918017315,0.9641141264073277,0
smt_5643,5.255413759753687,286.65,1.8333904621502486,0.9639816101573898,0
smt_29483,5.2548642227384335,286.65,1.8331987520455026,0.9638503095416079,0
smt_6014,5.254320053629007,286.65,1.8330089145749198,0.9637206638576371,0
smt_18695,5.253692437641323,286.65,1.8327899660356965,0.9635715989270892,0
smt_29482,5.253134541107294,286.65,1.8325953396501986,0.9634395094499326,0
smt_6195,5.252549931216944,286.65,1.8323913941102195,0.9633015171050494,0
smt_6105,5.251963354728626,286.65,1.832186762507806,0.9631634958034555,0
smt_19334,5.2196806161922416,286.65,1.8209246873163238,0.9453264641713611,0
smt_19331,5.2190624861385295,286.65,1.8207090480162322,0.945140757790384,0
smt_22269,5.218455495256629,286.65,1.820497294699679,0.944958756023378,0
sbt_34896,3.9055692704940204,216.3,1.8056261074868332,0.8487237806415185,0
sbt_34381,2.9168879892184965,163.8,1.7807618981797901,0.837074280142937,0
rbt_605808,1.5784489943048226,90.3,1.7480055307916087,0.8212857925090195,0
rbt_1607326,1.5758653625148504,90.3,1.7451443660186607,0.8204678660678701,0
smt_29480,4.983131688541902,286.65,1.7384028217484397,0.9612932021288466,0
smt_19271,4.981988049789053,286.65,1.7380038548016932,0.9610672762749414,0
smt_5537,4.981534107145762,286.65,1.7378454935097722,0.9609781185038,0
smt_40375,2.846187564507561,163.8,1.7375992457311116,0.8646860144630756,0
smt_40374,2.8456347008199923,163.8,1.7372617221123272,0.864359381611946,0
smt_40358,2.845084773138546,163.8,1.7369259909270733,0.864035306328835,0
smt_40357,2.8445058545099715,163.8,1.7365725607508982,0.8636950390493379,0
smt_40356,2.8440183318018666,163.8,1.7362749278399672,0.863409205414459,0
smt_40355,2.8434616313680525,163.8,1.735935061885258,0.8630836167144009,0
smt_40354,2.8428960304749182,163.8,1.7355897621946996,0.8627537055064433,0
smt_40353,2.8423239284146953,163.8,1.7352404935376649,0.8624209134292501,0
smt_40352,2.8418463844229978,163.8,1.7349489526391926,0.8621438318132078,0
smt_40351,2.8413938798596203,163.8,1.7346726983269964,0.8618818747296193,0
smt_40350,2.8408409576993274,163.8,1.7343351390105783,0.8615625772845615,0
smt_40349,2.8403203784901567,163.8,1.7340173250855657,0.8612627575831944,0
smt_40373,2.8397872435838756,163.8,1.7336918458998016,0.8609565165369034,0
smt_40348,2.839763649877111,163.8,1.7336774419274181,0.8609429828650028,0
smt_40366,2.8393609305023633,163.8,1.7334315815032741,0.8560441119397239,0
smt_40380,2.839317350544309,163.8,1.7334049759122765,0.8560173088214517,0
smt_40347,2.8391978733060457,163.8,1.7333320349853756,0.8606189321078719,0
smt_40367,2.8389319389168053,163.8,1.7331696818783913,0.8557804628231179,0
smt_40346,2.83863543445898,163.8,1.7329886657258728,0.860297719149894,0
smt_40368,2.8384330212520026,163.8,1.7328650923394397,0.8554744250012782,0
smt_40369,2.838090411615672,163.8,1.7326559289472965,0.8552646352140405,0
smt_40345,2.838064538033853,163.8,1.7326401331098005,0.8599726263474854,0
smt_40344,2.837502432386909,163.8,1.732296967269175,0.8596534807567818,0
smt_19274,4.9631481695081385,286.65,1.7314314214226894,0.9495237921456269,0
smt_4942,4.962614183453671,286.65,1.7312451363871173,0.9494168047041033,0
smt_18740,4.962093220108034,286.65,1.731063394421083,0.9493128117822467,0
smt_40362,2.8354762863974217,163.8,1.7310600039056299,0.8536739251025197,0
smt_5191,4.961574726948791,286.65,1.7308825141980781,0.9492096910424522,0
smt_40378,2.835142906800546,163.8,1.7308564754582085,0.8534723480752541,0
smt_5198,4.961061195414507,286.65,1.7307033648751116,0.9491079309622017,0
smt_40361,2.8346021477169656,163.8,1.730526341707549,0.8531460078304206,0
smt_5549,4.960495295789452,286.65,1.7305059465513528,0.9489962275693967,0
smt_19273,4.959916588225894,286.65,1.7303040600822934,0.9488824999649584,0
smt_40360,2.8340363548109724,163.8,1.7301809247930233,0.8528053965785475,0
smt_5414,4.959430849814221,286.65,1.7301346065983678,0.948787423560281,0
smt_5522,4.95889083041405,286.65,1.7299462167849469,0.948682116405,0
smt_40359,2.8335020470885555,163.8,1.7298547296022926,0.852484530044738,0
smt_40377,2.8328413699035613,163.8,1.7294513857775098,0.852088844090618,0
smt_40376,2.8322866373289988,163.8,1.7291127212020747,0.8517575283864568,0
smt_40861,4.935644481546446,286.65,1.7218365538274711,0.9340615634043953,0
smt_40860,4.93529527778519,286.65,1.7217147314792223,0.9339911690442838,0
smt_40859,4.934928215322273,286.65,1.7215866789891066,0.9339173611713637,0
smt_40858,4.934556089784002,286.65,1.7214568602072222,0.9338427308374094,0
...